Circuit: * H:\elektronika\Draft2.asc

.OP point found by inspection.
.step v1=0
.step v1=0.1
.step v1=0.2
.step v1=0.3
.step v1=0.4
.step v1=0.5
.step v1=0.6
.step v1=0.7
.step v1=0.8
.step v1=0.9
.step v1=1
.step v1=1.1
.step v1=1.2
.step v1=1.3
.step v1=1.4
.step v1=1.5
.step v1=1.6
.step v1=1.7
.step v1=1.8
.step v1=1.9
.step v1=2

Date: Fri Mar 11 11:06:33 2016
Total elapsed time: 0.972 seconds.

tnom = 27
temp = 27
method = trap
totiter = 42088
traniter = 0
tranpoints = 0
accept = 0
rejected = 0
matrix size = 8
fillins = 0
solver = Normal
Matrix Compiler1: 326 bytes object code size  2.7/2.7/[2.7]
Matrix Compiler2: 554 bytes object code size  2.7/2.7/[2.7]


