Circuit: * H:\elektronika\Draft3.asc

Direct Newton iteration for .op point succeeded.

Date: Fri Mar 11 11:42:59 2016
Total elapsed time: 0.112 seconds.

tnom = 27
temp = 27
method = modified trap
totiter = 238
traniter = 234
tranpoints = 118
accept = 118
rejected = 0
matrix size = 9
fillins = 0
solver = Normal
Matrix Compiler1: 394 bytes object code size  2.7/2.7/[2.7]
Matrix Compiler2: 667 bytes object code size  2.7/2.7/[2.7]


