Circuit: * H:\elektronika\tranzistory\tranzistory.asc

Ignoring BSIM parameter XL
Ignoring BSIM parameter XW
Ignoring BSIM parameter ACM
Ignoring BSIM parameter LDIF
Ignoring BSIM parameter HDIF
Error on line 916 : .model nmos4 nmos level=49 mobmod =1.000e+00 capmod =2.000e+00 noimod =1.000e+00 version=3.1 k1 =6.044e-01 k2 =2.945e-03 k3 =-1.72e+00 k3b =6.325e-01 nch =2.310e+17 vth0 =4.655e-01 voff =-5.72e-02 dvt0 =2.227e+01 dvt1 =1.051e+00 dvt2 =3.393e-03 keta =-6.21e-04 pscbe1 =2.756e+08 pscbe2 =9.645e-06 dvt0w =0.000e+00 dvt1w =0.000e+00 dvt2w =0.000e+00 ua =1.000e-12 ub =1.723e-18 uc =5.756e-11 u0 =4.035e+02 dsub =5.000e-01 eta0 =3.085e-02 etab =-3.95e-02 nfactor=1.119e-01 em =4.100e+07 pclm =6.831e-01 pdiblc1=1.076e-01 pdiblc2=1.453e-03 drout =5.000e-01 a0 =2.208e+00 a1 =0.000e+00 a2 =1.000e+00 pvag =0.000e+00 vsat =1.178e+05 ags =2.490e-01 b0 =-1.76e-08 b1 =0.000e+00 delta =1.000e-02 pdiblcb=2.583e-01 w0 =1.184e-07 dlc =2.900e-08 dwc =2.676e-08 dwb =0.000e+00 dwg =0.000e+00 ll =0.000e+00 lw =0.000e+00 lwl =0.000e+00 lln =1.000e+00 lwn =1.000e+00 wl =0.000e+00 ww =0.000e+00 wwl =0.000e+00 wln =1.000e+00 wwn =1.000e+00 at =3.300e+04 ute =-1.80e+00 kt1 =-3.30e-01 kt2 =2.200e-02 kt1l =0.000e+00 ua1 =0.000e+00 ub1 =0.000e+00 uc1 =0.000e+00 prt =0.000e+00 cgdo =1.120e-10 cgso =1.120e-10 cgbo =1.100e-10 cgdl =1.350e-10 cgsl =1.350e-10 ckappa =6.000e-01 cf =0.000e+00 elm =5.000e+00 xpart =1.000e+00 clc =1.000e-15 cle =6.000e-01 rdsw =6.043e+02 cdsc =0.000e+00 cdscb =0.000e+00 cdscd =8.448e-05 prwb =0.000e+00 prwg =0.000e+00 cit =1.000e-03 tox =7.700e-09 ngate =0.000e+00 nlx =1.918e-07 xl =5.000e-08 xw =0.000e+00 alpha0 =0.000e+00 beta0 =3.000e+01 af =1.400e+00 kf =2.810e-27 ef =1.000e+00 noia =1.000e+20 noib =5.000e+04 noic =-1.40e-12 nlev =0 acm =2 rd =0.000e+00 rs =0.000e+00 rsh =8.200e+01 rdc =0.000e+00 rsc =0.000e+00 lint =8.285e-09 wint =2.676e-08 ldif =0.000e+00 hdif =6.000e-07 wmlt =1.000e+00 lmlt =1.000e+00 xj =3.000e-07 js =2.000e-05 jsw =0.000e+00 is =0.000e+00 n =1.000e+00 nds =1000. vnds =-1.000e+00 cbd =0.000e+00 cbs =0.000e+00 cj =9.300e-04 cjsw =2.800e-10 fc =0.000e+00 mj =3.100e-01 mjsw =1.900e-01 tt =0.000e+00 pb =6.900e-01 php =6.900e-01
	* Unrecognized parameter "rdc" -- ignored
	* Unrecognized parameter "rsc" -- ignored
	* Unrecognized parameter "wmlt" -- ignored
	* Unrecognized parameter "lmlt" -- ignored
	* Unrecognized parameter "is" -- ignored
	* Unrecognized parameter "nds" -- ignored
	* Unrecognized parameter "vnds" -- ignored
	* Unrecognized parameter "cbd" -- ignored
	* Unrecognized parameter "cbs" -- ignored
	* Unrecognized parameter "fc" -- ignored
Warning: Pd = 0 is less than W.
Warning: Ps = 0 is less than W.
Direct Newton iteration for .op point succeeded.

Date: Fri Apr 01 11:37:16 2016
Total elapsed time: 0.154 seconds.

tnom = 27
temp = 27
method = modified trap
totiter = 812
traniter = 808
tranpoints = 402
accept = 261
rejected = 141
matrix size = 5
fillins = 0
solver = Normal
Matrix Compiler1:       7 opcodes  2.7/[2.7]/35.0
Matrix Compiler2: 301 bytes object code size  2.7/2.7/[2.8]


