Circuit: * H:\elektronika\filtre\filter.asc

Direct Newton iteration for .op point succeeded.

Date: Fri Apr 08 11:28:23 2016
Total elapsed time: 0.483 seconds.

tnom = 27
temp = 27
method = modified trap
totiter = 2085
traniter = 2082
tranpoints = 1042
accept = 1042
rejected = 0
matrix size = 5
fillins = 0
solver = Normal
Matrix Compiler1: 168 bytes object code size  2.7/2.7/[2.7]
Matrix Compiler2: 355 bytes object code size  2.7/2.7/[2.8]


