Circuit: * H:\elektronika\projekt\Draft1.asc

WARNING: Less than two connections to node NC_01.  This node is used by R2.

Date: Fri May 06 11:14:13 2016
Total elapsed time: 0.271 seconds.

tnom = 27
temp = 27
method = trap
totiter = 6003
traniter = 0
tranpoints = 0
accept = 0
rejected = 0
matrix size = 9
fillins = 0
solver = Normal
Matrix Compiler1: 224 bytes object code size  2.7/2.7/[2.7]
Matrix Compiler2: 545 bytes object code size  2.7/2.7/[2.7]


