Circuit: * H:\elektronika\projekt\Draft2.asc

Vdc1: Missing value, assumed 0V @ DC

Date: Fri May 06 11:16:01 2016
Total elapsed time: 0.283 seconds.

tnom = 27
temp = 27
method = trap
totiter = 6006
traniter = 0
tranpoints = 0
accept = 0
rejected = 0
matrix size = 9
fillins = 0
solver = Normal
Matrix Compiler1: 376 bytes object code size  2.7/2.7/[2.8]
Matrix Compiler2: 633 bytes object code size  2.7/2.7/[2.8]


