Circuit: * H:\elektronika\projekt\projekt.asc

Error on line 2 : v1 n003 0 v
	 Unknown parameter "v"
V1: Missing value, assumed 0V @ DC

Date: Fri Apr 29 11:35:19 2016
Total elapsed time: 0.202 seconds.

tnom = 27
temp = 27
method = trap
totiter = 6010
traniter = 0
tranpoints = 0
accept = 0
rejected = 0
matrix size = 5
fillins = 0
solver = Normal
Matrix Compiler1: 114 bytes object code size  2.7/2.7/[2.7]
Matrix Compiler2: 301 bytes object code size  2.7/2.7/[2.7]


