Circuit: * H:\elektronika\mosfet_tranzistor.asc

.step v2=0
.step v2=2.5
.step v2=5
.step v2=7.5
.step v2=10

Date: Fri Mar 11 11:28:23 2016
Total elapsed time: 0.173 seconds.

tnom = 27
temp = 27
method = trap
totiter = 233
traniter = 0
tranpoints = 0
accept = 0
rejected = 0
matrix size = 16
fillins = 0
solver = Normal
Matrix Compiler1: off  [2.2]/2.4/2.7
Matrix Compiler2: off  [2.0]/2.6/2.7


