Circuit: * H:\elektronika\prvy obvod.asc

Direct Newton iteration for .op point succeeded.

Date: Fri Feb 19 11:26:47 2016
Total elapsed time: 17.734 seconds.

tnom = 27
temp = 27
method = modified trap
totiter = 800037
traniter = 800034
tranpoints = 400018
accept = 400018
rejected = 0
matrix size = 3
fillins = 0
solver = Normal
Matrix Compiler1: 50 bytes object code size  1.9/1.9/[1.9]
Matrix Compiler2: 175 bytes object code size  2.0/2.0/[2.0]


