Circuit: * H:\elektronika\dioda.asc

.OP point found by inspection.

Date: Fri Feb 26 11:31:27 2016
Total elapsed time: 0.977 seconds.

tnom = 27
temp = 27
method = modified trap
totiter = 20083
traniter = 20083
tranpoints = 10040
accept = 10037
rejected = 3
matrix size = 11
fillins = 8
solver = Normal
Matrix Compiler1:      54 opcodes  2.2/[2.1]/3.3
Matrix Compiler2: 977 bytes object code size  1.9/2.0/[1.8]


